Phosphate
     RDKit          3D

  5  4  0  0  0  0  0  0  0  0999 V2000
   21.7480    5.9420    1.9670 O   0  0  0  0  0  1  0  0  0  0  0  0
   21.0870    4.8320    1.0340 P   0  0  0  0  0  0  0  0  0  0  0  0
   22.2170    3.9150    0.3850 O   0  0  0  0  0  0  0  0  0  0  0  0
   20.0950    3.9470    1.9160 O   0  0  0  0  0  1  0  0  0  0  0  0
   20.2810    5.5400   -0.1430 O   0  0  0  0  0  1  0  0  0  0  0  0
  1  2  1  0
  2  3  2  0
  2  4  1  0
  2  5  1  0
M  CHG  3   1  -1   4  -1   5  -1
M  END
$$$$
